<?xml version="1.0" encoding="UTF-8"?>

<!-- generated on 2022-04-23 23:00:13 by Eclipse SUMO netconvert Version 1.9.2
<configuration xmlns:xsi="http://www.w3.org/2001/XMLSchema-instance" xsi:noNamespaceSchemaLocation="http://sumo.dlr.de/xsd/netconvertConfiguration.xsd">

    <input>
        <node-files value="my.nod.xml"/>
        <edge-files value="my.edg.xml"/>
    </input>

    <output>
        <output-file value="CircularRoad.net.xml"/>
    </output>

    <report>
        <aggregate-warnings value="5"/>
    </report>

</configuration>
-->

<net version="1.9" junctionCornerDetail="5" limitTurnSpeed="5.50" xmlns:xsi="http://www.w3.org/2001/XMLSchema-instance" xsi:noNamespaceSchemaLocation="http://sumo.dlr.de/xsd/net_file.xsd">

    <location netOffset="50.00,50.00" convBoundary="0.00,0.00,100.00,100.00" origBoundary="-50.00,-50.00,50.00,50.00" projParameter="!"/>

    <edge id=":n1_0" function="internal">
        <lane id=":n1_0_0" index="0" speed="20.00" length="0.31" shape="104.80,49.85 104.80,50.15"/>
        <lane id=":n1_0_1" index="1" speed="20.00" length="0.31" shape="101.60,49.85 101.60,50.15"/>
    </edge>
    <edge id=":n2_0" function="internal">
        <lane id=":n2_0_0" index="0" speed="20.00" length="0.31" shape="-4.80,50.15 -4.80,49.85"/>
        <lane id=":n2_0_1" index="1" speed="20.00" length="0.31" shape="-1.60,50.15 -1.60,49.85"/>
    </edge>

    <edge id="edge1" from="n1" to="n2" priority="-1" shape="100.00,50.00 100.00,50.63 99.98,51.26 99.96,51.88 99.94,52.51 99.90,53.14 99.86,53.77 99.81,54.39 99.75,55.02 99.68,55.64 99.61,56.27 99.52,56.89 99.43,57.51 99.33,58.13 99.23,58.75 99.11,59.37 98.99,59.99 98.86,60.60 98.73,61.21 98.58,61.82 98.43,62.43 98.27,63.04 98.10,63.65 97.93,64.25 97.74,64.85 97.55,65.45 97.35,66.05 97.15,66.64 96.94,67.23 96.72,67.82 96.49,68.41 96.25,68.99 96.01,69.57 95.76,70.15 95.51,70.72 95.24,71.29 94.97,71.86 94.69,72.42 94.41,72.98 94.11,73.54 93.82,74.09 93.51,74.64 93.20,75.18 92.88,75.72 92.55,76.26 92.22,76.79 91.88,77.32 91.53,77.84 91.18,78.36 90.82,78.88 90.45,79.39 90.08,79.90 89.70,80.40 89.31,80.89 88.92,81.38 88.53,81.87 88.12,82.35 87.71,82.83 87.30,83.30 86.88,83.77 86.45,84.23 86.02,84.68 85.58,85.13 85.13,85.58 84.68,86.02 84.23,86.45 83.77,86.88 83.30,87.30 82.83,87.71 82.35,88.12 81.87,88.53 81.38,88.92 80.89,89.31 80.40,89.70 79.90,90.08 79.39,90.45 78.88,90.82 78.36,91.18 77.84,91.53 77.32,91.88 76.79,92.22 76.26,92.55 75.72,92.88 75.18,93.20 74.64,93.51 74.09,93.82 73.54,94.11 72.98,94.41 72.42,94.69 71.86,94.97 71.29,95.24 70.72,95.51 70.15,95.76 69.57,96.01 68.99,96.25 68.41,96.49 67.82,96.72 67.23,96.94 66.64,97.15 66.05,97.35 65.45,97.55 64.85,97.74 64.25,97.93 63.65,98.10 63.04,98.27 62.43,98.43 61.82,98.58 61.21,98.73 60.60,98.86 59.99,98.99 59.37,99.11 58.75,99.23 58.13,99.33 57.51,99.43 56.89,99.52 56.27,99.61 55.64,99.68 55.02,99.75 54.39,99.81 53.77,99.86 53.14,99.90 52.51,99.94 51.88,99.96 51.26,99.98 50.63,100.00 50.00,100.00 49.37,100.00 48.74,99.98 48.12,99.96 47.49,99.94 46.86,99.90 46.23,99.86 45.61,99.81 44.98,99.75 44.36,99.68 43.73,99.61 43.11,99.52 42.49,99.43 41.87,99.33 41.25,99.23 40.63,99.11 40.01,98.99 39.40,98.86 38.79,98.73 38.18,98.58 37.57,98.43 36.96,98.27 36.35,98.10 35.75,97.93 35.15,97.74 34.55,97.55 33.95,97.35 33.36,97.15 32.77,96.94 32.18,96.72 31.59,96.49 31.01,96.25 30.43,96.01 29.85,95.76 29.28,95.51 28.71,95.24 28.14,94.97 27.58,94.69 27.02,94.41 26.46,94.11 25.91,93.82 25.36,93.51 24.82,93.20 24.28,92.88 23.74,92.55 23.21,92.22 22.68,91.88 22.16,91.53 21.64,91.18 21.12,90.82 20.61,90.45 20.10,90.08 19.60,89.70 19.11,89.31 18.62,88.92 18.13,88.53 17.65,88.12 17.17,87.71 16.70,87.30 16.23,86.88 15.77,86.45 15.32,86.02 14.87,85.58 14.42,85.13 13.98,84.68 13.55,84.23 13.12,83.77 12.70,83.30 12.29,82.83 11.88,82.35 11.47,81.87 11.08,81.38 10.69,80.89 10.30,80.40 9.92,79.90 9.55,79.39 9.18,78.88 8.82,78.36 8.47,77.84 8.12,77.32 7.78,76.79 7.45,76.26 7.12,75.72 6.80,75.18 6.49,74.64 6.18,74.09 5.89,73.54 5.59,72.98 5.31,72.42 5.03,71.86 4.76,71.29 4.49,70.72 4.24,70.15 3.99,69.57 3.75,68.99 3.51,68.41 3.28,67.82 3.06,67.23 2.85,66.64 2.65,66.05 2.45,65.45 2.26,64.85 2.07,64.25 1.90,63.65 1.73,63.04 1.57,62.43 1.42,61.82 1.27,61.21 1.14,60.60 1.01,59.99 0.89,59.37 0.77,58.75 0.67,58.13 0.57,57.51 0.48,56.89 0.39,56.27 0.32,55.64 0.25,55.02 0.19,54.39 0.14,53.77 0.10,53.14 0.06,52.51 0.04,51.88 0.02,51.26 0.00,50.63 0.00,50.00">
        <lane id="edge1_0" index="0" speed="20.00" length="166.83" shape="104.80,50.15 104.80,50.71 104.78,51.41 104.76,52.03 104.73,52.74 104.69,53.44 104.65,54.11 104.59,54.81 104.52,55.52 104.45,56.17 104.37,56.88 104.27,57.58 104.17,58.24 104.07,58.89 103.96,59.59 103.82,60.28 103.69,60.95 103.55,61.60 103.41,62.28 103.24,62.97 103.08,63.61 102.90,64.29 102.72,64.95 102.53,65.63 102.32,66.30 102.11,66.93 101.90,67.58 101.68,68.22 101.45,68.87 101.20,69.53 100.94,70.20 100.69,70.83 100.43,71.44 100.16,72.06 99.88,72.71 99.58,73.34 99.29,73.96 98.98,74.57 98.67,75.19 98.35,75.79 98.03,76.39 97.68,77.01 97.35,77.60 96.99,78.20 96.64,78.78 96.28,79.35 95.89,79.96 95.51,80.52 95.14,81.07 94.74,81.66 94.34,82.21 93.93,82.76 93.49,83.35 93.07,83.88 92.68,84.37 92.23,84.92 91.77,85.47 91.34,85.97 90.90,86.48 90.42,87.01 89.94,87.53 89.47,88.02 88.99,88.51 88.51,88.99 88.02,89.47 87.53,89.94 87.01,90.42 86.48,90.90 85.97,91.34 85.47,91.77 84.92,92.23 84.37,92.68 83.88,93.07 83.35,93.49 82.76,93.93 82.21,94.34 81.66,94.74 81.07,95.14 80.52,95.51 79.96,95.89 79.35,96.28 78.78,96.64 78.20,96.99 77.60,97.35 77.01,97.68 76.39,98.03 75.79,98.35 75.19,98.67 74.57,98.98 73.96,99.29 73.34,99.58 72.71,99.88 72.06,100.16 71.44,100.43 70.83,100.69 70.20,100.94 69.53,101.20 68.87,101.45 68.22,101.68 67.58,101.90 66.93,102.11 66.30,102.32 65.63,102.53 64.95,102.72 64.29,102.90 63.61,103.08 62.97,103.24 62.28,103.41 61.60,103.55 60.95,103.69 60.28,103.82 59.59,103.96 58.89,104.07 58.24,104.17 57.58,104.27 56.88,104.37 56.17,104.45 55.52,104.52 54.81,104.59 54.11,104.65 53.44,104.69 52.74,104.73 52.03,104.76 51.41,104.78 50.71,104.80 50.00,104.80 49.29,104.80 48.59,104.78 47.97,104.76 47.26,104.73 46.56,104.69 45.89,104.65 45.19,104.59 44.48,104.52 43.83,104.45 43.12,104.37 42.42,104.27 41.76,104.17 41.11,104.07 40.41,103.96 39.72,103.82 39.05,103.69 38.40,103.55 37.72,103.41 37.03,103.24 36.39,103.08 35.71,102.90 35.05,102.72 34.37,102.53 33.70,102.32 33.07,102.11 32.42,101.90 31.78,101.68 31.13,101.45 30.47,101.20 29.80,100.94 29.17,100.69 28.56,100.43 27.94,100.16 27.29,99.88 26.66,99.58 26.04,99.29 25.43,98.98 24.81,98.67 24.21,98.35 23.61,98.03 22.99,97.68 22.40,97.35 21.80,96.99 21.22,96.64 20.65,96.28 20.04,95.89 19.48,95.51 18.93,95.14 18.34,94.74 17.79,94.34 17.24,93.93 16.65,93.49 16.12,93.07 15.63,92.68 15.08,92.23 14.53,91.77 14.03,91.34 13.52,90.90 12.99,90.42 12.47,89.94 11.98,89.47 11.49,88.99 11.01,88.51 10.53,88.02 10.06,87.53 9.58,87.01 9.10,86.48 8.66,85.97 8.23,85.47 7.77,84.92 7.32,84.37 6.93,83.88 6.51,83.35 6.07,82.76 5.66,82.21 5.26,81.66 4.86,81.07 4.49,80.52 4.11,79.96 3.72,79.35 3.36,78.78 3.01,78.20 2.65,77.60 2.32,77.01 1.97,76.39 1.65,75.79 1.33,75.19 1.02,74.57 0.71,73.96 0.42,73.34 0.12,72.71 -0.16,72.06 -0.43,71.44 -0.69,70.83 -0.94,70.20 -1.20,69.53 -1.45,68.87 -1.68,68.22 -1.90,67.58 -2.11,66.93 -2.32,66.30 -2.53,65.63 -2.72,64.95 -2.90,64.29 -3.08,63.61 -3.24,62.97 -3.41,62.28 -3.55,61.60 -3.69,60.95 -3.82,60.28 -3.96,59.59 -4.07,58.89 -4.17,58.24 -4.27,57.58 -4.37,56.88 -4.45,56.17 -4.52,55.52 -4.59,54.81 -4.65,54.11 -4.69,53.44 -4.73,52.74 -4.76,52.03 -4.78,51.41 -4.80,50.71 -4.80,50.15"/>
        <lane id="edge1_1" index="1" speed="20.00" length="166.83" shape="101.60,50.15 101.60,50.66 101.58,51.31 101.56,51.93 101.54,52.59 101.50,53.24 101.46,53.88 101.40,54.53 101.34,55.19 101.27,55.82 101.20,56.47 101.10,57.12 101.01,57.75 100.91,58.38 100.81,59.03 100.68,59.67 100.56,60.31 100.42,60.93 100.29,61.57 100.13,62.20 99.98,62.82 99.81,63.46 99.64,64.08 99.46,64.71 99.27,65.33 99.07,65.94 98.87,66.56 98.66,67.17 98.44,67.78 98.21,68.39 97.97,69.01 97.73,69.60 97.48,70.19 97.23,70.79 96.97,71.38 96.69,71.97 96.41,72.56 96.12,73.14 95.83,73.72 95.52,74.29 95.22,74.86 94.90,75.43 94.58,75.99 94.25,76.55 93.91,77.10 93.57,77.64 93.22,78.20 92.86,78.73 92.50,79.26 92.13,79.81 91.75,80.33 91.36,80.85 90.96,81.38 90.56,81.89 90.17,82.38 89.76,82.89 89.34,83.39 88.92,83.88 88.50,84.36 88.06,84.85 87.61,85.33 87.17,85.79 86.72,86.26 86.26,86.72 85.79,87.17 85.33,87.61 84.85,88.06 84.36,88.50 83.88,88.92 83.39,89.34 82.89,89.76 82.38,90.17 81.89,90.56 81.38,90.96 80.85,91.36 80.33,91.75 79.81,92.13 79.26,92.50 78.73,92.86 78.20,93.22 77.64,93.57 77.10,93.91 76.55,94.25 75.99,94.58 75.43,94.90 74.86,95.22 74.29,95.52 73.72,95.83 73.14,96.12 72.56,96.41 71.97,96.69 71.38,96.97 70.79,97.23 70.19,97.48 69.60,97.73 69.01,97.97 68.39,98.21 67.78,98.44 67.17,98.66 66.56,98.87 65.94,99.07 65.33,99.27 64.71,99.46 64.08,99.64 63.46,99.81 62.82,99.98 62.20,100.13 61.57,100.29 60.93,100.42 60.31,100.56 59.67,100.68 59.03,100.81 58.38,100.91 57.75,101.01 57.12,101.10 56.47,101.20 55.82,101.27 55.19,101.34 54.53,101.40 53.88,101.46 53.24,101.50 52.59,101.54 51.93,101.56 51.31,101.58 50.66,101.60 50.00,101.60 49.34,101.60 48.69,101.58 48.07,101.56 47.41,101.54 46.76,101.50 46.12,101.46 45.47,101.40 44.81,101.34 44.18,101.27 43.53,101.20 42.88,101.10 42.25,101.01 41.62,100.91 40.97,100.81 40.33,100.68 39.69,100.56 39.07,100.42 38.43,100.29 37.80,100.13 37.18,99.98 36.54,99.81 35.92,99.64 35.29,99.46 34.67,99.27 34.06,99.07 33.44,98.87 32.83,98.66 32.22,98.44 31.61,98.21 30.99,97.97 30.40,97.73 29.81,97.48 29.21,97.23 28.62,96.97 28.03,96.69 27.44,96.41 26.86,96.12 26.28,95.83 25.71,95.52 25.14,95.22 24.57,94.90 24.01,94.58 23.45,94.25 22.90,93.91 22.36,93.57 21.80,93.22 21.27,92.86 20.74,92.50 20.19,92.13 19.67,91.75 19.15,91.36 18.62,90.96 18.11,90.56 17.62,90.17 17.11,89.76 16.61,89.34 16.12,88.92 15.64,88.50 15.15,88.06 14.67,87.61 14.21,87.17 13.74,86.72 13.28,86.26 12.83,85.79 12.39,85.33 11.94,84.85 11.50,84.36 11.08,83.88 10.66,83.39 10.24,82.89 9.83,82.38 9.44,81.89 9.04,81.38 8.64,80.85 8.25,80.33 7.87,79.81 7.50,79.26 7.14,78.73 6.78,78.20 6.43,77.64 6.09,77.10 5.75,76.55 5.42,75.99 5.10,75.43 4.78,74.86 4.48,74.29 4.17,73.72 3.88,73.14 3.59,72.56 3.31,71.97 3.03,71.38 2.77,70.79 2.52,70.19 2.27,69.60 2.03,69.01 1.79,68.39 1.56,67.78 1.34,67.17 1.13,66.56 0.93,65.94 0.73,65.33 0.54,64.71 0.36,64.08 0.19,63.46 0.02,62.82 -0.13,62.20 -0.29,61.57 -0.42,60.93 -0.56,60.31 -0.68,59.67 -0.81,59.03 -0.91,58.38 -1.01,57.75 -1.10,57.12 -1.20,56.47 -1.27,55.82 -1.34,55.19 -1.40,54.53 -1.46,53.88 -1.50,53.24 -1.54,52.59 -1.56,51.93 -1.58,51.31 -1.60,50.66 -1.60,50.15"/>
    </edge>
    <edge id="edge2" from="n2" to="n1" priority="-1" shape="0.00,50.00 0.00,49.37 0.02,48.74 0.04,48.12 0.06,47.49 0.10,46.86 0.14,46.23 0.19,45.61 0.25,44.98 0.32,44.36 0.39,43.73 0.48,43.11 0.57,42.49 0.67,41.87 0.77,41.25 0.89,40.63 1.01,40.01 1.14,39.40 1.27,38.79 1.42,38.18 1.57,37.57 1.73,36.96 1.90,36.35 2.07,35.75 2.26,35.15 2.45,34.55 2.65,33.95 2.85,33.36 3.06,32.77 3.28,32.18 3.51,31.59 3.75,31.01 3.99,30.43 4.24,29.85 4.49,29.28 4.76,28.71 5.03,28.14 5.31,27.58 5.59,27.02 5.89,26.46 6.18,25.91 6.49,25.36 6.80,24.82 7.12,24.28 7.45,23.74 7.78,23.21 8.12,22.68 8.47,22.16 8.82,21.64 9.18,21.12 9.55,20.61 9.92,20.10 10.30,19.60 10.69,19.11 11.08,18.62 11.47,18.13 11.88,17.65 12.29,17.17 12.70,16.70 13.12,16.23 13.55,15.77 13.98,15.32 14.42,14.87 14.87,14.42 15.32,13.98 15.77,13.55 16.23,13.12 16.70,12.70 17.17,12.29 17.65,11.88 18.13,11.47 18.62,11.08 19.11,10.69 19.60,10.30 20.10,9.92 20.61,9.55 21.12,9.18 21.64,8.82 22.16,8.47 22.68,8.12 23.21,7.78 23.74,7.45 24.28,7.12 24.82,6.80 25.36,6.49 25.91,6.18 26.46,5.89 27.02,5.59 27.58,5.31 28.14,5.03 28.71,4.76 29.28,4.49 29.85,4.24 30.43,3.99 31.01,3.75 31.59,3.51 32.18,3.28 32.77,3.06 33.36,2.85 33.95,2.65 34.55,2.45 35.15,2.26 35.75,2.07 36.35,1.90 36.96,1.73 37.57,1.57 38.18,1.42 38.79,1.27 39.40,1.14 40.01,1.01 40.63,0.89 41.25,0.77 41.87,0.67 42.49,0.57 43.11,0.48 43.73,0.39 44.36,0.32 44.98,0.25 45.61,0.19 46.23,0.14 46.86,0.10 47.49,0.06 48.12,0.04 48.74,0.02 49.37,0.00 50.00,0.00 50.63,0.00 51.26,0.02 51.88,0.04 52.51,0.06 53.14,0.10 53.77,0.14 54.39,0.19 55.02,0.25 55.64,0.32 56.27,0.39 56.89,0.48 57.51,0.57 58.13,0.67 58.75,0.77 59.37,0.89 59.99,1.01 60.60,1.14 61.21,1.27 61.82,1.42 62.43,1.57 63.04,1.73 63.65,1.90 64.25,2.07 64.85,2.26 65.45,2.45 66.05,2.65 66.64,2.85 67.23,3.06 67.82,3.28 68.41,3.51 68.99,3.75 69.57,3.99 70.15,4.24 70.72,4.49 71.29,4.76 71.86,5.03 72.42,5.31 72.98,5.59 73.54,5.89 74.09,6.18 74.64,6.49 75.18,6.80 75.72,7.12 76.26,7.45 76.79,7.78 77.32,8.12 77.84,8.47 78.36,8.82 78.88,9.18 79.39,9.55 79.90,9.92 80.40,10.30 80.89,10.69 81.38,11.08 81.87,11.47 82.35,11.88 82.83,12.29 83.30,12.70 83.77,13.12 84.23,13.55 84.68,13.98 85.13,14.42 85.58,14.87 86.02,15.32 86.45,15.77 86.88,16.23 87.30,16.70 87.71,17.17 88.12,17.65 88.53,18.13 88.92,18.62 89.31,19.11 89.70,19.60 90.08,20.10 90.45,20.61 90.82,21.12 91.18,21.64 91.53,22.16 91.88,22.68 92.22,23.21 92.55,23.74 92.88,24.28 93.20,24.82 93.51,25.36 93.82,25.91 94.11,26.46 94.41,27.02 94.69,27.58 94.97,28.14 95.24,28.71 95.51,29.28 95.76,29.85 96.01,30.43 96.25,31.01 96.49,31.59 96.72,32.18 96.94,32.77 97.15,33.36 97.35,33.95 97.55,34.55 97.74,35.15 97.93,35.75 98.10,36.35 98.27,36.96 98.43,37.57 98.58,38.18 98.73,38.79 98.86,39.40 98.99,40.01 99.11,40.63 99.23,41.25 99.33,41.87 99.43,42.49 99.52,43.11 99.61,43.73 99.68,44.36 99.75,44.98 99.81,45.61 99.86,46.23 99.90,46.86 99.94,47.49 99.96,48.12 99.98,48.74 100.00,49.37 100.00,50.00">
        <lane id="edge2_0" index="0" speed="20.00" length="166.83" shape="-4.80,49.85 -4.80,49.29 -4.78,48.59 -4.76,47.97 -4.73,47.26 -4.69,46.56 -4.65,45.89 -4.59,45.19 -4.52,44.48 -4.45,43.83 -4.37,43.12 -4.27,42.42 -4.17,41.76 -4.07,41.11 -3.96,40.41 -3.82,39.72 -3.69,39.05 -3.55,38.40 -3.41,37.72 -3.24,37.03 -3.08,36.39 -2.90,35.71 -2.72,35.05 -2.53,34.37 -2.32,33.70 -2.11,33.07 -1.90,32.42 -1.68,31.78 -1.45,31.13 -1.20,30.47 -0.94,29.80 -0.69,29.17 -0.43,28.56 -0.16,27.94 0.12,27.29 0.42,26.66 0.71,26.04 1.02,25.43 1.33,24.81 1.65,24.21 1.97,23.61 2.32,22.99 2.65,22.40 3.01,21.80 3.36,21.22 3.72,20.65 4.11,20.04 4.49,19.48 4.86,18.93 5.26,18.34 5.66,17.79 6.07,17.24 6.51,16.65 6.93,16.12 7.32,15.63 7.77,15.08 8.23,14.53 8.66,14.03 9.10,13.52 9.58,12.99 10.06,12.47 10.53,11.98 11.01,11.49 11.49,11.01 11.98,10.53 12.47,10.06 12.99,9.58 13.52,9.10 14.03,8.66 14.53,8.23 15.08,7.77 15.63,7.32 16.12,6.93 16.65,6.51 17.24,6.07 17.79,5.66 18.34,5.26 18.93,4.86 19.48,4.49 20.04,4.11 20.65,3.72 21.22,3.36 21.80,3.01 22.40,2.65 22.99,2.32 23.61,1.97 24.21,1.65 24.81,1.33 25.43,1.02 26.04,0.71 26.66,0.42 27.29,0.12 27.94,-0.16 28.56,-0.43 29.17,-0.69 29.80,-0.94 30.47,-1.20 31.13,-1.45 31.78,-1.68 32.42,-1.90 33.07,-2.11 33.70,-2.32 34.37,-2.53 35.05,-2.72 35.71,-2.90 36.39,-3.08 37.03,-3.24 37.72,-3.41 38.40,-3.55 39.05,-3.69 39.72,-3.82 40.41,-3.96 41.11,-4.07 41.76,-4.17 42.42,-4.27 43.12,-4.37 43.83,-4.45 44.48,-4.52 45.19,-4.59 45.89,-4.65 46.56,-4.69 47.26,-4.73 47.97,-4.76 48.59,-4.78 49.29,-4.80 50.00,-4.80 50.71,-4.80 51.41,-4.78 52.03,-4.76 52.74,-4.73 53.44,-4.69 54.11,-4.65 54.81,-4.59 55.52,-4.52 56.17,-4.45 56.88,-4.37 57.58,-4.27 58.24,-4.17 58.89,-4.07 59.59,-3.96 60.28,-3.82 60.95,-3.69 61.60,-3.55 62.28,-3.41 62.97,-3.24 63.61,-3.08 64.29,-2.90 64.95,-2.72 65.63,-2.53 66.30,-2.32 66.93,-2.11 67.58,-1.90 68.22,-1.68 68.87,-1.45 69.53,-1.20 70.20,-0.94 70.83,-0.69 71.44,-0.43 72.06,-0.16 72.71,0.12 73.34,0.42 73.96,0.71 74.57,1.02 75.19,1.33 75.79,1.65 76.39,1.97 77.01,2.32 77.60,2.65 78.20,3.01 78.78,3.36 79.35,3.72 79.96,4.11 80.52,4.49 81.07,4.86 81.66,5.26 82.21,5.66 82.76,6.07 83.35,6.51 83.88,6.93 84.37,7.32 84.92,7.77 85.47,8.23 85.97,8.66 86.48,9.10 87.01,9.58 87.53,10.06 88.02,10.53 88.51,11.01 88.99,11.49 89.47,11.98 89.94,12.47 90.42,12.99 90.90,13.52 91.34,14.03 91.77,14.53 92.23,15.08 92.68,15.63 93.07,16.12 93.49,16.65 93.93,17.24 94.34,17.79 94.74,18.34 95.14,18.93 95.51,19.48 95.89,20.04 96.28,20.65 96.64,21.22 96.99,21.80 97.35,22.40 97.68,22.99 98.03,23.61 98.35,24.21 98.67,24.81 98.98,25.43 99.29,26.04 99.58,26.66 99.88,27.29 100.16,27.94 100.43,28.56 100.69,29.17 100.94,29.80 101.20,30.47 101.45,31.13 101.68,31.78 101.90,32.42 102.11,33.07 102.32,33.70 102.53,34.37 102.72,35.05 102.90,35.71 103.08,36.39 103.24,37.03 103.41,37.72 103.55,38.40 103.69,39.05 103.82,39.72 103.96,40.41 104.07,41.11 104.17,41.76 104.27,42.42 104.37,43.12 104.45,43.83 104.52,44.48 104.59,45.19 104.65,45.89 104.69,46.56 104.73,47.26 104.76,47.97 104.78,48.59 104.80,49.29 104.80,49.85"/>
        <lane id="edge2_1" index="1" speed="20.00" length="166.83" shape="-1.60,49.85 -1.60,49.34 -1.58,48.69 -1.56,48.07 -1.54,47.41 -1.50,46.76 -1.46,46.12 -1.40,45.47 -1.34,44.81 -1.27,44.18 -1.20,43.53 -1.10,42.88 -1.01,42.25 -0.91,41.62 -0.81,40.97 -0.68,40.33 -0.56,39.69 -0.42,39.07 -0.29,38.43 -0.13,37.80 0.02,37.18 0.19,36.54 0.36,35.92 0.54,35.29 0.73,34.67 0.93,34.06 1.13,33.44 1.34,32.83 1.56,32.22 1.79,31.61 2.03,30.99 2.27,30.40 2.52,29.81 2.77,29.21 3.03,28.62 3.31,28.03 3.59,27.44 3.88,26.86 4.17,26.28 4.48,25.71 4.78,25.14 5.10,24.57 5.42,24.01 5.75,23.45 6.09,22.90 6.43,22.36 6.78,21.80 7.14,21.27 7.50,20.74 7.87,20.19 8.25,19.67 8.64,19.15 9.04,18.62 9.44,18.11 9.83,17.62 10.24,17.11 10.66,16.61 11.08,16.12 11.50,15.64 11.94,15.15 12.39,14.67 12.83,14.21 13.28,13.74 13.74,13.28 14.21,12.83 14.67,12.39 15.15,11.94 15.64,11.50 16.12,11.08 16.61,10.66 17.11,10.24 17.62,9.83 18.11,9.44 18.62,9.04 19.15,8.64 19.67,8.25 20.19,7.87 20.74,7.50 21.27,7.14 21.80,6.78 22.36,6.43 22.90,6.09 23.45,5.75 24.01,5.42 24.57,5.10 25.14,4.78 25.71,4.48 26.28,4.17 26.86,3.88 27.44,3.59 28.03,3.31 28.62,3.03 29.21,2.77 29.81,2.52 30.40,2.27 30.99,2.03 31.61,1.79 32.22,1.56 32.83,1.34 33.44,1.13 34.06,0.93 34.67,0.73 35.29,0.54 35.92,0.36 36.54,0.19 37.18,0.02 37.80,-0.13 38.43,-0.29 39.07,-0.42 39.69,-0.56 40.33,-0.68 40.97,-0.81 41.62,-0.91 42.25,-1.01 42.88,-1.10 43.53,-1.20 44.18,-1.27 44.81,-1.34 45.47,-1.40 46.12,-1.46 46.76,-1.50 47.41,-1.54 48.07,-1.56 48.69,-1.58 49.34,-1.60 50.00,-1.60 50.66,-1.60 51.31,-1.58 51.93,-1.56 52.59,-1.54 53.24,-1.50 53.88,-1.46 54.53,-1.40 55.19,-1.34 55.82,-1.27 56.47,-1.20 57.12,-1.10 57.75,-1.01 58.38,-0.91 59.03,-0.81 59.67,-0.68 60.31,-0.56 60.93,-0.42 61.57,-0.29 62.20,-0.13 62.82,0.02 63.46,0.19 64.08,0.36 64.71,0.54 65.33,0.73 65.94,0.93 66.56,1.13 67.17,1.34 67.78,1.56 68.39,1.79 69.01,2.03 69.60,2.27 70.19,2.52 70.79,2.77 71.38,3.03 71.97,3.31 72.56,3.59 73.14,3.88 73.72,4.17 74.29,4.48 74.86,4.78 75.43,5.10 75.99,5.42 76.55,5.75 77.10,6.09 77.64,6.43 78.20,6.78 78.73,7.14 79.26,7.50 79.81,7.87 80.33,8.25 80.85,8.64 81.38,9.04 81.89,9.44 82.38,9.83 82.89,10.24 83.39,10.66 83.88,11.08 84.36,11.50 84.85,11.94 85.33,12.39 85.79,12.83 86.26,13.28 86.72,13.74 87.17,14.21 87.61,14.67 88.06,15.15 88.50,15.64 88.92,16.12 89.34,16.61 89.76,17.11 90.17,17.62 90.56,18.11 90.96,18.62 91.36,19.15 91.75,19.67 92.13,20.19 92.50,20.74 92.86,21.27 93.22,21.80 93.57,22.36 93.91,22.90 94.25,23.45 94.58,24.01 94.90,24.57 95.22,25.14 95.52,25.71 95.83,26.28 96.12,26.86 96.41,27.44 96.69,28.03 96.97,28.62 97.23,29.21 97.48,29.81 97.73,30.40 97.97,30.99 98.21,31.61 98.44,32.22 98.66,32.83 98.87,33.44 99.07,34.06 99.27,34.67 99.46,35.29 99.64,35.92 99.81,36.54 99.98,37.18 100.13,37.80 100.29,38.43 100.42,39.07 100.56,39.69 100.68,40.33 100.81,40.97 100.91,41.62 101.01,42.25 101.10,42.88 101.20,43.53 101.27,44.18 101.34,44.81 101.40,45.47 101.46,46.12 101.50,46.76 101.54,47.41 101.56,48.07 101.58,48.69 101.60,49.34 101.60,49.85"/>
    </edge>

    <junction id="n1" type="priority" x="100.00" y="50.00" incLanes="edge2_0 edge2_1" intLanes=":n1_0_0 :n1_0_1" shape="100.00,50.15 106.40,50.15 106.40,49.85 100.00,49.85">
        <request index="0" response="00" foes="00" cont="0"/>
        <request index="1" response="00" foes="00" cont="0"/>
    </junction>
    <junction id="n2" type="priority" x="0.00" y="50.00" incLanes="edge1_0 edge1_1" intLanes=":n2_0_0 :n2_0_1" shape="-6.40,50.15 -0.00,50.15 -0.00,49.85 -6.40,49.85">
        <request index="0" response="00" foes="00" cont="0"/>
        <request index="1" response="00" foes="00" cont="0"/>
    </junction>

    <connection from="edge1" to="edge2" fromLane="0" toLane="0" via=":n2_0_0" dir="s" state="M"/>
    <connection from="edge1" to="edge2" fromLane="1" toLane="1" via=":n2_0_1" dir="s" state="M"/>
    <connection from="edge2" to="edge1" fromLane="0" toLane="0" via=":n1_0_0" dir="s" state="M"/>
    <connection from="edge2" to="edge1" fromLane="1" toLane="1" via=":n1_0_1" dir="s" state="M"/>

    <connection from=":n1_0" to="edge1" fromLane="0" toLane="0" dir="s" state="M"/>
    <connection from=":n1_0" to="edge1" fromLane="1" toLane="1" dir="s" state="M"/>
    <connection from=":n2_0" to="edge2" fromLane="0" toLane="0" dir="s" state="M"/>
    <connection from=":n2_0" to="edge2" fromLane="1" toLane="1" dir="s" state="M"/>

</net>
