<configuration>
    <input>
        <net-file value="CircularRoad.net.xml"/>
        <route-files value="CircularRoad.rou.xml"/>
		<additional-files value="CircularRoad.add.xml"/>
    </input>

    <time>
        <begin value="0"/>
        <step-length value = "0.01"/>
    </time>
    
    <report>
        <verbose value="true"/>
        <no-step-log value="true"/>
    </report>
    <processing>
    <lateral-resolution value="0.01" />
   </processing>
</configuration>