<?xml version="1.0" encoding="UTF-8"?>

<!-- generated on 2022-04-12 14:57:50 by Eclipse SUMO netedit Version 1.10.0
<configuration xmlns:xsi="http://www.w3.org/2001/XMLSchema-instance" xsi:noNamespaceSchemaLocation="http://sumo.dlr.de/xsd/netconvertConfiguration.xsd">

    <input>
        <sumo-net-file value="E:\OneDrive%20-%20nyu.edu\Code\ACC_SUMO\Circular%20road\CircularRoad.net.xml"/>
    </input>

    <output>
        <output-file value="E:\OneDrive%20-%20nyu.edu\Code\ACC_SUMO\Circular%20road\CircularRoad.net.xml"/>
    </output>

    <processing>
        <geometry.min-radius.fix.railways value="false"/>
        <geometry.max-grade.fix value="false"/>
        <offset.disable-normalization value="true"/>
        <lefthand value="false"/>
    </processing>

    <junctions>
        <no-turnarounds value="true"/>
        <junctions.corner-detail value="5"/>
        <junctions.limit-turn-speed value="5.5"/>
        <rectangular-lane-cut value="false"/>
    </junctions>

    <pedestrian>
        <walkingareas value="false"/>
    </pedestrian>

    <report>
        <aggregate-warnings value="5"/>
    </report>

</configuration>
-->

<net version="1.9" junctionCornerDetail="5" limitTurnSpeed="5.50" xmlns:xsi="http://www.w3.org/2001/XMLSchema-instance" xsi:noNamespaceSchemaLocation="http://sumo.dlr.de/xsd/net_file.xsd">

    <location netOffset="-588077.02,-2974648.66" convBoundary="124.07,0.00,259.14,2175.82" origBoundary="-80.113085,26.890787,-80.103181,26.910430" projParameter="+proj=utm +zone=17 +ellps=WGS84 +datum=WGS84 +units=m +no_defs"/>

    <type id="highway.bridleway" priority="1" numLanes="1" speed="2.78" allow="pedestrian" oneway="1" width="2.00"/>
    <type id="highway.bus_guideway" priority="1" numLanes="1" speed="27.78" allow="bus" oneway="1"/>
    <type id="highway.cycleway" priority="1" numLanes="1" speed="8.33" allow="bicycle" oneway="1" width="1.00"/>
    <type id="highway.footway" priority="1" numLanes="1" speed="2.78" allow="pedestrian" oneway="1" width="2.00"/>
    <type id="highway.ford" priority="1" numLanes="1" speed="2.78" allow="army" oneway="1"/>
    <type id="highway.living_street" priority="2" numLanes="1" speed="2.78" disallow="tram rail_urban rail rail_electric rail_fast ship" oneway="1"/>
    <type id="highway.motorway" priority="14" numLanes="2" speed="39.44" allow="private emergency authority army vip passenger hov taxi bus coach delivery truck trailer motorcycle evehicle custom1 custom2" oneway="1"/>
    <type id="highway.motorway_link" priority="9" numLanes="1" speed="22.22" allow="private emergency authority army vip passenger hov taxi bus coach delivery truck trailer motorcycle evehicle custom1 custom2" oneway="1"/>
    <type id="highway.path" priority="1" numLanes="1" speed="2.78" allow="pedestrian bicycle" oneway="1" width="2.00"/>
    <type id="highway.pedestrian" priority="1" numLanes="1" speed="2.78" allow="pedestrian" oneway="1" width="2.00"/>
    <type id="highway.primary" priority="12" numLanes="2" speed="27.78" disallow="tram rail_urban rail rail_electric rail_fast ship" oneway="1"/>
    <type id="highway.primary_link" priority="7" numLanes="1" speed="22.22" disallow="tram rail_urban rail rail_electric rail_fast ship" oneway="1"/>
    <type id="highway.raceway" priority="15" numLanes="2" speed="83.33" allow="vip" oneway="1"/>
    <type id="highway.residential" priority="3" numLanes="1" speed="13.89" disallow="tram rail_urban rail rail_electric rail_fast ship" oneway="1"/>
    <type id="highway.secondary" priority="11" numLanes="1" speed="27.78" disallow="tram rail_urban rail rail_electric rail_fast ship" oneway="1"/>
    <type id="highway.secondary_link" priority="6" numLanes="1" speed="22.22" disallow="tram rail_urban rail rail_electric rail_fast ship" oneway="1"/>
    <type id="highway.service" priority="1" numLanes="1" speed="5.56" allow="pedestrian delivery bicycle" oneway="1"/>
    <type id="highway.stairs" priority="1" numLanes="1" speed="1.39" allow="pedestrian" oneway="1" width="2.00"/>
    <type id="highway.step" priority="1" numLanes="1" speed="1.39" allow="pedestrian" oneway="1" width="2.00"/>
    <type id="highway.steps" priority="1" numLanes="1" speed="1.39" allow="pedestrian" oneway="1" width="2.00"/>
    <type id="highway.tertiary" priority="10" numLanes="1" speed="22.22" disallow="tram rail_urban rail rail_electric rail_fast ship" oneway="1"/>
    <type id="highway.tertiary_link" priority="5" numLanes="1" speed="22.22" disallow="tram rail_urban rail rail_electric rail_fast ship" oneway="1"/>
    <type id="highway.track" priority="1" numLanes="1" speed="5.56" allow="pedestrian motorcycle moped bicycle" oneway="1"/>
    <type id="highway.trunk" priority="13" numLanes="2" speed="27.78" disallow="pedestrian bicycle tram rail_urban rail rail_electric rail_fast ship" oneway="1"/>
    <type id="highway.trunk_link" priority="8" numLanes="1" speed="22.22" disallow="pedestrian bicycle tram rail_urban rail rail_electric rail_fast ship" oneway="1"/>
    <type id="highway.unclassified" priority="4" numLanes="1" speed="13.89" disallow="tram rail_urban rail rail_electric rail_fast ship" oneway="1"/>
    <type id="highway.unsurfaced" priority="1" numLanes="1" speed="8.33" disallow="tram rail_urban rail rail_electric rail_fast ship" oneway="1"/>
    <type id="railway.highspeed" priority="21" numLanes="1" speed="69.44" allow="rail_fast" oneway="1"/>
    <type id="railway.light_rail" priority="19" numLanes="1" speed="27.78" allow="rail_urban" oneway="1"/>
    <type id="railway.preserved" priority="16" numLanes="1" speed="27.78" allow="rail" oneway="1"/>
    <type id="railway.rail" priority="20" numLanes="1" speed="44.44" allow="rail" oneway="1"/>
    <type id="railway.subway" priority="18" numLanes="1" speed="27.78" allow="rail_urban" oneway="1"/>
    <type id="railway.tram" priority="17" numLanes="1" speed="13.89" allow="tram" oneway="1"/>

    <edge id=":1395523818_0" function="internal">
        <lane id=":1395523818_0_0" index="0" disallow="tram rail_urban rail rail_electric rail_fast ship" speed="22.22" length="0.74" shape="223.22,701.80 223.49,702.00 223.66,702.15 223.82,702.31 224.03,702.56"/>
        <lane id=":1395523818_0_1" index="1" disallow="tram rail_urban rail rail_electric rail_fast ship" speed="22.22" length="0.74" shape="221.32,704.38 221.41,704.44 221.47,704.49 221.52,704.54 221.59,704.63"/>
    </edge>
    <edge id=":1395523839_0" function="internal">
        <lane id=":1395523839_0_0" index="0" disallow="tram rail_urban rail rail_electric rail_fast ship" speed="22.22" length="0.30" shape="223.88,790.99 223.78,791.09 223.72,791.15 223.65,791.21 223.55,791.30"/>
        <lane id=":1395523839_0_1" index="1" disallow="tram rail_urban rail rail_electric rail_fast ship" speed="22.22" length="0.30" shape="221.59,788.75 221.56,788.78 221.54,788.81 221.52,788.83 221.48,788.86"/>
    </edge>
    <edge id=":1395523844_0" function="internal">
        <lane id=":1395523844_0_0" index="0" disallow="tram rail_urban rail rail_electric rail_fast ship" speed="22.22" length="0.23" shape="144.18,792.48 143.92,792.26"/>
        <lane id=":1395523844_0_1" index="1" disallow="tram rail_urban rail rail_electric rail_fast ship" speed="22.22" length="0.23" shape="146.12,789.94 146.03,789.86"/>
    </edge>
    <edge id=":4796025583_0" function="internal">
        <lane id=":4796025583_0_0" index="0" disallow="tram rail_urban rail rail_electric rail_fast ship" speed="22.22" length="0.39" shape="239.79,766.89 239.74,767.05 239.71,767.16 239.66,767.27 239.60,767.43"/>
        <lane id=":4796025583_0_1" index="1" disallow="tram rail_urban rail rail_electric rail_fast ship" speed="22.22" length="0.39" shape="236.72,766.00 236.70,766.06 236.69,766.09 236.67,766.13 236.65,766.18"/>
    </edge>
    <edge id=":99665715_0" function="internal">
        <lane id=":99665715_0_0" index="0" disallow="tram rail_urban rail rail_electric rail_fast ship" speed="22.22" length="0.64" shape="124.49,731.24 124.54,730.95 124.59,730.76 124.65,730.58 124.75,730.31"/>
        <lane id=":99665715_0_1" index="1" disallow="tram rail_urban rail rail_electric rail_fast ship" speed="22.22" length="0.64" shape="127.64,731.80 127.66,731.70 127.67,731.64 127.69,731.58 127.73,731.49"/>
    </edge>
    <edge id=":99665721_0" function="internal">
        <lane id=":99665721_0_0" index="0" disallow="tram rail_urban rail rail_electric rail_fast ship" speed="22.22" length="0.40" shape="134.38,710.71 134.48,710.56 134.55,710.47 134.63,710.37 134.75,710.24"/>
        <lane id=":99665721_0_1" index="1" disallow="tram rail_urban rail rail_electric rail_fast ship" speed="22.22" length="0.40" shape="137.03,712.50 137.07,712.45 137.09,712.42 137.12,712.39 137.16,712.34"/>
    </edge>
    <edge id=":99665741_0" function="internal">
        <lane id=":99665741_0_0" index="0" disallow="tram rail_urban rail rail_electric rail_fast ship" speed="22.22" length="0.44" shape="235.58,718.59 235.68,718.76 235.74,718.87 235.80,718.99 235.88,719.17"/>
        <lane id=":99665741_0_1" index="1" disallow="tram rail_urban rail rail_electric rail_fast ship" speed="22.22" length="0.44" shape="232.84,720.24 232.87,720.29 232.89,720.33 232.91,720.37 232.94,720.43"/>
    </edge>
    <edge id=":99665775_0" function="internal">
        <lane id=":99665775_0_0" index="0" disallow="tram rail_urban rail rail_electric rail_fast ship" speed="22.22" length="0.65" shape="128.77,773.82 128.62,773.58 128.52,773.40 128.44,773.22 128.34,772.95"/>
        <lane id=":99665775_0_1" index="1" disallow="tram rail_urban rail rail_electric rail_fast ship" speed="22.22" length="0.65" shape="131.48,772.11 131.42,772.03 131.39,771.97 131.37,771.91 131.33,771.82"/>
    </edge>

    <edge id="11207446#1" from="99665715" to="99665721" priority="10" type="highway.tertiary" spreadType="center" shape="126.12,731.20 128.42,725.40 131.34,718.09 135.82,711.44">
        <lane id="11207446#1_0" index="0" disallow="tram rail_urban rail rail_electric rail_fast ship" speed="22.22" length="21.61" shape="124.75,730.31 126.93,724.81 129.92,717.34 134.38,710.71">
            <param key="origId" value="11207446"/>
        </lane>
        <lane id="11207446#1_1" index="1" disallow="tram rail_urban rail rail_electric rail_fast ship" speed="22.22" length="21.61" shape="127.73,731.49 129.91,725.99 132.76,718.84 137.03,712.50">
            <param key="origId" value="11207446"/>
        </lane>
    </edge>
    <edge id="11207446#3" from="1395523818" to="99665741" priority="10" type="highway.tertiary" spreadType="center" shape="222.57,703.31 229.32,711.28 234.32,719.60">
        <lane id="11207446#3_0" index="0" disallow="tram rail_urban rail rail_electric rail_fast ship" speed="22.22" length="19.56" shape="224.03,702.56 230.62,710.34 235.58,718.59">
            <param key="origId" value="11207446"/>
        </lane>
        <lane id="11207446#3_1" index="1" disallow="tram rail_urban rail rail_electric rail_fast ship" speed="22.22" length="19.56" shape="221.59,704.63 228.02,712.22 232.84,720.24">
            <param key="origId" value="11207446"/>
        </lane>
    </edge>
    <edge id="11207446#4" from="99665741" to="4796025583" priority="10" type="highway.tertiary" spreadType="center" shape="234.32,719.60 237.76,727.64 240.10,734.59 241.63,743.59 241.45,752.45 240.03,760.26 238.20,766.63">
        <lane id="11207446#4_0" index="0" disallow="tram rail_urban rail rail_electric rail_fast ship" speed="22.22" length="48.22" shape="235.88,719.17 239.26,727.07 241.66,734.20 243.23,743.47 243.05,752.61 241.59,760.62 239.79,766.89">
            <param key="origId" value="11207446"/>
        </lane>
        <lane id="11207446#4_1" index="1" disallow="tram rail_urban rail rail_electric rail_fast ship" speed="22.22" length="48.22" shape="232.94,720.43 236.26,728.21 238.54,734.98 240.03,743.71 239.85,752.29 238.47,759.90 236.72,766.00">
            <param key="origId" value="11207446"/>
        </lane>
    </edge>
    <edge id="11207446#5" from="4796025583" to="1395523839" priority="10" type="highway.tertiary" spreadType="center" shape="238.20,766.63 235.64,772.67 231.63,779.58 225.94,786.60 222.63,789.98">
        <lane id="11207446#5_0" index="0" disallow="tram rail_urban rail rail_electric rail_fast ship" speed="22.22" length="27.97" shape="239.60,767.43 237.07,773.39 232.95,780.49 227.14,787.67 223.88,790.99">
            <param key="origId" value="11207446"/>
        </lane>
        <lane id="11207446#5_1" index="1" disallow="tram rail_urban rail rail_electric rail_fast ship" speed="22.22" length="27.97" shape="236.65,766.18 234.21,771.95 230.31,778.67 224.74,785.53 221.59,788.75">
            <param key="origId" value="11207446"/>
        </lane>
    </edge>
    <edge id="11207446#7" from="1395523844" to="99665775" priority="10" type="highway.tertiary" spreadType="center" shape="145.06,791.14 140.06,786.73 135.09,780.79 129.95,772.69">
        <lane id="11207446#7_0" index="0" disallow="tram rail_urban rail rail_electric rail_fast ship" speed="22.22" length="23.57" shape="143.92,792.26 138.91,787.85 133.80,781.74 128.77,773.82">
            <param key="origId" value="11207446"/>
        </lane>
        <lane id="11207446#7_1" index="1" disallow="tram rail_urban rail rail_electric rail_fast ship" speed="22.22" length="23.57" shape="146.03,789.86 141.21,785.61 136.38,779.84 131.48,772.11">
            <param key="origId" value="11207446"/>
        </lane>
    </edge>
    <edge id="11207446#8" from="99665775" to="99665715" priority="10" type="highway.tertiary" spreadType="center" shape="129.95,772.69 126.50,763.59 124.94,756.75 124.07,748.83 124.19,742.00 126.12,731.20">
        <lane id="11207446#8_0" index="0" disallow="tram rail_urban rail rail_electric rail_fast ship" speed="22.22" length="41.87" shape="128.34,772.95 124.96,764.05 123.36,757.02 122.47,748.90 122.59,741.84 124.49,731.24">
            <param key="origId" value="11207446"/>
        </lane>
        <lane id="11207446#8_1" index="1" disallow="tram rail_urban rail rail_electric rail_fast ship" speed="22.22" length="41.87" shape="131.33,771.82 128.04,763.13 126.52,756.48 125.67,748.76 125.79,742.16 127.64,731.80">
            <param key="origId" value="11207446"/>
        </lane>
    </edge>
    <edge id="edge1" from="1395523839" to="1395523844" priority="10" type="highway.tertiary" spreadType="center" shape="222.63,789.98 217.67,794.17 210.04,798.52 201.11,802.22 190.87,804.69 180.76,804.87 171.86,803.70 162.60,801.24 155.29,797.94 150.25,795.10 145.06,791.14">
        <lane id="edge1_0" index="0" disallow="tram rail_urban rail rail_electric rail_fast ship" speed="22.22" length="84.21" shape="223.55,791.30 218.59,795.49 210.75,799.96 201.61,803.75 191.07,806.29 180.67,806.47 171.55,805.27 162.06,802.75 154.57,799.37 149.37,796.44 144.18,792.48">
            <param key="origId" value="11207446"/>
        </lane>
        <lane id="edge1_1" index="1" disallow="tram rail_urban rail rail_electric rail_fast ship" speed="22.22" length="84.21" shape="221.48,788.86 216.75,792.85 209.33,797.08 200.61,800.69 190.67,803.09 180.85,803.27 172.17,802.13 163.14,799.73 156.01,796.51 151.13,793.76 146.12,789.94">
            <param key="origId" value="11207446"/>
        </lane>
    </edge>
    <edge id="edge2" from="99665721" to="1395523818" priority="10" type="highway.tertiary" spreadType="center" shape="135.82,711.44 142.13,704.22 148.61,698.91 156.44,693.98 164.66,690.29 174.17,688.56 181.44,687.63 189.09,688.25 199.64,690.60 207.60,693.23 215.69,698.23 222.57,703.31">
        <lane id="edge2_0" index="0" disallow="tram rail_urban rail rail_electric rail_fast ship" speed="22.22" length="97.58" shape="134.75,710.24 141.01,703.07 147.67,697.61 155.68,692.57 164.18,688.75 173.93,686.98 181.40,686.02 189.33,686.66 200.07,689.06 208.28,691.77 216.59,696.90 223.22,701.80">
            <param key="origId" value="11207446"/>
        </lane>
        <lane id="edge2_1" index="1" disallow="tram rail_urban rail rail_electric rail_fast ship" speed="22.22" length="97.58" shape="137.16,712.34 143.25,705.37 149.55,700.21 157.20,695.39 165.14,691.83 174.41,690.14 181.48,689.24 188.85,689.84 199.21,692.14 206.92,694.69 214.79,699.56 221.32,704.38">
            <param key="origId" value="11207446"/>
        </lane>
    </edge>

    <junction id="1392338959" type="dead_end" x="259.14" y="2166.33" incLanes="" intLanes="" shape="259.14,2166.33"/>
    <junction id="1395523736" type="dead_end" x="196.77" y="0.00" incLanes="" intLanes="" shape="196.77,0.00"/>
    <junction id="1395523818" type="priority" x="222.57" y="703.31" incLanes="edge2_0 edge2_1" intLanes=":1395523818_0_0 :1395523818_0_1" shape="220.37,705.66 225.25,701.53 224.89,701.11 224.76,700.97 224.61,700.85 224.42,700.70 224.17,700.51">
        <request index="0" response="00" foes="00" cont="0"/>
        <request index="1" response="00" foes="00" cont="0"/>
    </junction>
    <junction id="1395523839" type="priority" x="222.63" y="789.98" incLanes="11207446#5_0 11207446#5_1" intLanes=":1395523839_0_0 :1395523839_0_1" shape="225.02,792.11 220.45,787.63 224.58,792.52 224.75,792.38 224.81,792.32 224.93,792.20">
        <request index="0" response="00" foes="00" cont="0"/>
        <request index="1" response="00" foes="00" cont="0"/>
    </junction>
    <junction id="1395523844" type="priority" x="145.06" y="791.14" incLanes="edge1_0 edge1_1" intLanes=":1395523844_0_0 :1395523844_0_1" shape="143.21,793.75 147.09,788.66 142.86,793.46">
        <request index="0" response="00" foes="00" cont="0"/>
        <request index="1" response="00" foes="00" cont="0"/>
    </junction>
    <junction id="1395523922" type="dead_end" x="180.61" y="2175.82" incLanes="" intLanes="" shape="180.61,2175.82"/>
    <junction id="4796025583" type="priority" x="238.20" y="766.63" incLanes="11207446#4_0 11207446#4_1" intLanes=":4796025583_0_0 :4796025583_0_1" shape="241.33,767.33 235.18,765.56 241.07,768.06 241.18,767.79 241.22,767.70 241.25,767.60">
        <request index="0" response="00" foes="00" cont="0"/>
        <request index="1" response="00" foes="00" cont="0"/>
    </junction>
    <junction id="99665715" type="priority" x="126.12" y="731.20" incLanes="11207446#8_0 11207446#8_1" intLanes=":99665715_0_0 :99665715_0_1" shape="129.21,732.08 123.26,729.72 123.09,730.17 123.04,730.32 123.00,730.49 122.96,730.69 122.91,730.95">
        <request index="0" response="00" foes="00" cont="0"/>
        <request index="1" response="00" foes="00" cont="0"/>
    </junction>
    <junction id="99665721" type="priority" x="135.82" y="711.44" incLanes="11207446#1_0 11207446#1_1" intLanes=":99665721_0_0 :99665721_0_1" shape="138.36,713.39 133.54,709.18 133.35,709.41 133.28,709.49 133.22,709.57 133.05,709.82">
        <request index="0" response="00" foes="00" cont="0"/>
        <request index="1" response="00" foes="00" cont="0"/>
    </junction>
    <junction id="99665741" type="priority" x="234.32" y="719.60" incLanes="11207446#3_0 11207446#3_1" intLanes=":99665741_0_0 :99665741_0_1" shape="231.46,721.06 237.35,718.54 237.22,718.25 237.17,718.14 237.12,718.04 237.05,717.92 236.95,717.76">
        <request index="0" response="00" foes="00" cont="0"/>
        <request index="1" response="00" foes="00" cont="0"/>
    </junction>
    <junction id="99665775" type="priority" x="129.95" y="772.69" incLanes="11207446#7_0 11207446#7_1" intLanes=":99665775_0_0 :99665775_0_1" shape="127.42,774.68 132.83,771.25 126.84,773.52 127.02,773.97 127.09,774.12 127.17,774.27 127.28,774.45">
        <request index="0" response="00" foes="00" cont="0"/>
        <request index="1" response="00" foes="00" cont="0"/>
    </junction>
    <junction id="99665785" type="dead_end" x="125.54" y="1.72" incLanes="" intLanes="" shape="125.54,1.72"/>

    <connection from="11207446#1" to="edge2" fromLane="0" toLane="0" via=":99665721_0_0" dir="s" state="M"/>
    <connection from="11207446#1" to="edge2" fromLane="1" toLane="1" via=":99665721_0_1" dir="s" state="M"/>
    <connection from="11207446#3" to="11207446#4" fromLane="0" toLane="0" via=":99665741_0_0" dir="s" state="M"/>
    <connection from="11207446#3" to="11207446#4" fromLane="1" toLane="1" via=":99665741_0_1" dir="s" state="M"/>
    <connection from="11207446#4" to="11207446#5" fromLane="0" toLane="0" via=":4796025583_0_0" dir="s" state="M"/>
    <connection from="11207446#4" to="11207446#5" fromLane="1" toLane="1" via=":4796025583_0_1" dir="s" state="M"/>
    <connection from="11207446#5" to="edge1" fromLane="0" toLane="0" via=":1395523839_0_0" dir="s" state="M"/>
    <connection from="11207446#5" to="edge1" fromLane="1" toLane="1" via=":1395523839_0_1" dir="s" state="M"/>
    <connection from="11207446#7" to="11207446#8" fromLane="0" toLane="0" via=":99665775_0_0" dir="s" state="M"/>
    <connection from="11207446#7" to="11207446#8" fromLane="1" toLane="1" via=":99665775_0_1" dir="s" state="M"/>
    <connection from="11207446#8" to="11207446#1" fromLane="0" toLane="0" via=":99665715_0_0" dir="s" state="M"/>
    <connection from="11207446#8" to="11207446#1" fromLane="1" toLane="1" via=":99665715_0_1" dir="s" state="M"/>
    <connection from="edge1" to="11207446#7" fromLane="0" toLane="0" via=":1395523844_0_0" dir="s" state="M"/>
    <connection from="edge1" to="11207446#7" fromLane="1" toLane="1" via=":1395523844_0_1" dir="s" state="M"/>
    <connection from="edge2" to="11207446#3" fromLane="0" toLane="0" via=":1395523818_0_0" dir="s" state="M"/>
    <connection from="edge2" to="11207446#3" fromLane="1" toLane="1" via=":1395523818_0_1" dir="s" state="M"/>

    <connection from=":1395523818_0" to="11207446#3" fromLane="0" toLane="0" dir="s" state="M"/>
    <connection from=":1395523818_0" to="11207446#3" fromLane="1" toLane="1" dir="s" state="M"/>
    <connection from=":1395523839_0" to="edge1" fromLane="0" toLane="0" dir="s" state="M"/>
    <connection from=":1395523839_0" to="edge1" fromLane="1" toLane="1" dir="s" state="M"/>
    <connection from=":1395523844_0" to="11207446#7" fromLane="0" toLane="0" dir="s" state="M"/>
    <connection from=":1395523844_0" to="11207446#7" fromLane="1" toLane="1" dir="s" state="M"/>
    <connection from=":4796025583_0" to="11207446#5" fromLane="0" toLane="0" dir="s" state="M"/>
    <connection from=":4796025583_0" to="11207446#5" fromLane="1" toLane="1" dir="s" state="M"/>
    <connection from=":99665715_0" to="11207446#1" fromLane="0" toLane="0" dir="s" state="M"/>
    <connection from=":99665715_0" to="11207446#1" fromLane="1" toLane="1" dir="s" state="M"/>
    <connection from=":99665721_0" to="edge2" fromLane="0" toLane="0" dir="s" state="M"/>
    <connection from=":99665721_0" to="edge2" fromLane="1" toLane="1" dir="s" state="M"/>
    <connection from=":99665741_0" to="11207446#4" fromLane="0" toLane="0" dir="s" state="M"/>
    <connection from=":99665741_0" to="11207446#4" fromLane="1" toLane="1" dir="s" state="M"/>
    <connection from=":99665775_0" to="11207446#8" fromLane="0" toLane="0" dir="s" state="M"/>
    <connection from=":99665775_0" to="11207446#8" fromLane="1" toLane="1" dir="s" state="M"/>

    <roundabout nodes="1395523818 1395523839 1395523844 4796025583 99665715 99665721 99665741 99665775" edges="11207446#1 11207446#3 11207446#4 11207446#5 11207446#7 11207446#8 edge1 edge2"/>

</net>
