
    <edges>
        <edge id="edge1" from="n1" to="n2" shape="50.00,0.00 50.00,0.63 49.98,1.26 49.96,1.88 49.94,2.51 49.90,3.14 49.86,3.77 49.81,4.39 49.75,5.02 49.68,5.64 49.61,6.27 49.52,6.89 49.43,7.51 49.33,8.13 49.23,8.75 49.11,9.37 48.99,9.99 48.86,10.60 48.73,11.21 48.58,11.82 48.43,12.43 48.27,13.04 48.10,13.65 47.93,14.25 47.74,14.85 47.55,15.45 47.35,16.05 47.15,16.64 46.94,17.23 46.72,17.82 46.49,18.41 46.25,18.99 46.01,19.57 45.76,20.15 45.51,20.72 45.24,21.29 44.97,21.86 44.69,22.42 44.41,22.98 44.11,23.54 43.82,24.09 43.51,24.64 43.20,25.18 42.88,25.72 42.55,26.26 42.22,26.79 41.88,27.32 41.53,27.84 41.18,28.36 40.82,28.88 40.45,29.39 40.08,29.90 39.70,30.40 39.31,30.89 38.92,31.38 38.53,31.87 38.12,32.35 37.71,32.83 37.30,33.30 36.88,33.77 36.45,34.23 36.02,34.68 35.58,35.13 35.13,35.58 34.68,36.02 34.23,36.45 33.77,36.88 33.30,37.30 32.83,37.71 32.35,38.12 31.87,38.53 31.38,38.92 30.89,39.31 30.40,39.70 29.90,40.08 29.39,40.45 28.88,40.82 28.36,41.18 27.84,41.53 27.32,41.88 26.79,42.22 26.26,42.55 25.72,42.88 25.18,43.20 24.64,43.51 24.09,43.82 23.54,44.11 22.98,44.41 22.42,44.69 21.86,44.97 21.29,45.24 20.72,45.51 20.15,45.76 19.57,46.01 18.99,46.25 18.41,46.49 17.82,46.72 17.23,46.94 16.64,47.15 16.05,47.35 15.45,47.55 14.85,47.74 14.25,47.93 13.65,48.10 13.04,48.27 12.43,48.43 11.82,48.58 11.21,48.73 10.60,48.86 9.99,48.99 9.37,49.11 8.75,49.23 8.13,49.33 7.51,49.43 6.89,49.52 6.27,49.61 5.64,49.68 5.02,49.75 4.39,49.81 3.77,49.86 3.14,49.90 2.51,49.94 1.88,49.96 1.26,49.98 0.63,50.00 0.00,50.00 -0.63,50.00 -1.26,49.98 -1.88,49.96 -2.51,49.94 -3.14,49.90 -3.77,49.86 -4.39,49.81 -5.02,49.75 -5.64,49.68 -6.27,49.61 -6.89,49.52 -7.51,49.43 -8.13,49.33 -8.75,49.23 -9.37,49.11 -9.99,48.99 -10.60,48.86 -11.21,48.73 -11.82,48.58 -12.43,48.43 -13.04,48.27 -13.65,48.10 -14.25,47.93 -14.85,47.74 -15.45,47.55 -16.05,47.35 -16.64,47.15 -17.23,46.94 -17.82,46.72 -18.41,46.49 -18.99,46.25 -19.57,46.01 -20.15,45.76 -20.72,45.51 -21.29,45.24 -21.86,44.97 -22.42,44.69 -22.98,44.41 -23.54,44.11 -24.09,43.82 -24.64,43.51 -25.18,43.20 -25.72,42.88 -26.26,42.55 -26.79,42.22 -27.32,41.88 -27.84,41.53 -28.36,41.18 -28.88,40.82 -29.39,40.45 -29.90,40.08 -30.40,39.70 -30.89,39.31 -31.38,38.92 -31.87,38.53 -32.35,38.12 -32.83,37.71 -33.30,37.30 -33.77,36.88 -34.23,36.45 -34.68,36.02 -35.13,35.58 -35.58,35.13 -36.02,34.68 -36.45,34.23 -36.88,33.77 -37.30,33.30 -37.71,32.83 -38.12,32.35 -38.53,31.87 -38.92,31.38 -39.31,30.89 -39.70,30.40 -40.08,29.90 -40.45,29.39 -40.82,28.88 -41.18,28.36 -41.53,27.84 -41.88,27.32 -42.22,26.79 -42.55,26.26 -42.88,25.72 -43.20,25.18 -43.51,24.64 -43.82,24.09 -44.11,23.54 -44.41,22.98 -44.69,22.42 -44.97,21.86 -45.24,21.29 -45.51,20.72 -45.76,20.15 -46.01,19.57 -46.25,18.99 -46.49,18.41 -46.72,17.82 -46.94,17.23 -47.15,16.64 -47.35,16.05 -47.55,15.45 -47.74,14.85 -47.93,14.25 -48.10,13.65 -48.27,13.04 -48.43,12.43 -48.58,11.82 -48.73,11.21 -48.86,10.60 -48.99,9.99 -49.11,9.37 -49.23,8.75 -49.33,8.13 -49.43,7.51 -49.52,6.89 -49.61,6.27 -49.68,5.64 -49.75,5.02 -49.81,4.39 -49.86,3.77 -49.90,3.14 -49.94,2.51 -49.96,1.88 -49.98,1.26 -50.00,0.63 -50.00,0.00" numLanes="2" speed="20"/>
        <edge id="edge2" from="n2" to="n1" shape="-50.00,0.00 -50.00,-0.63 -49.98,-1.26 -49.96,-1.88 -49.94,-2.51 -49.90,-3.14 -49.86,-3.77 -49.81,-4.39 -49.75,-5.02 -49.68,-5.64 -49.61,-6.27 -49.52,-6.89 -49.43,-7.51 -49.33,-8.13 -49.23,-8.75 -49.11,-9.37 -48.99,-9.99 -48.86,-10.60 -48.73,-11.21 -48.58,-11.82 -48.43,-12.43 -48.27,-13.04 -48.10,-13.65 -47.93,-14.25 -47.74,-14.85 -47.55,-15.45 -47.35,-16.05 -47.15,-16.64 -46.94,-17.23 -46.72,-17.82 -46.49,-18.41 -46.25,-18.99 -46.01,-19.57 -45.76,-20.15 -45.51,-20.72 -45.24,-21.29 -44.97,-21.86 -44.69,-22.42 -44.41,-22.98 -44.11,-23.54 -43.82,-24.09 -43.51,-24.64 -43.20,-25.18 -42.88,-25.72 -42.55,-26.26 -42.22,-26.79 -41.88,-27.32 -41.53,-27.84 -41.18,-28.36 -40.82,-28.88 -40.45,-29.39 -40.08,-29.90 -39.70,-30.40 -39.31,-30.89 -38.92,-31.38 -38.53,-31.87 -38.12,-32.35 -37.71,-32.83 -37.30,-33.30 -36.88,-33.77 -36.45,-34.23 -36.02,-34.68 -35.58,-35.13 -35.13,-35.58 -34.68,-36.02 -34.23,-36.45 -33.77,-36.88 -33.30,-37.30 -32.83,-37.71 -32.35,-38.12 -31.87,-38.53 -31.38,-38.92 -30.89,-39.31 -30.40,-39.70 -29.90,-40.08 -29.39,-40.45 -28.88,-40.82 -28.36,-41.18 -27.84,-41.53 -27.32,-41.88 -26.79,-42.22 -26.26,-42.55 -25.72,-42.88 -25.18,-43.20 -24.64,-43.51 -24.09,-43.82 -23.54,-44.11 -22.98,-44.41 -22.42,-44.69 -21.86,-44.97 -21.29,-45.24 -20.72,-45.51 -20.15,-45.76 -19.57,-46.01 -18.99,-46.25 -18.41,-46.49 -17.82,-46.72 -17.23,-46.94 -16.64,-47.15 -16.05,-47.35 -15.45,-47.55 -14.85,-47.74 -14.25,-47.93 -13.65,-48.10 -13.04,-48.27 -12.43,-48.43 -11.82,-48.58 -11.21,-48.73 -10.60,-48.86 -9.99,-48.99 -9.37,-49.11 -8.75,-49.23 -8.13,-49.33 -7.51,-49.43 -6.89,-49.52 -6.27,-49.61 -5.64,-49.68 -5.02,-49.75 -4.39,-49.81 -3.77,-49.86 -3.14,-49.90 -2.51,-49.94 -1.88,-49.96 -1.26,-49.98 -0.63,-50.00 -0.00,-50.00 0.63,-50.00 1.26,-49.98 1.88,-49.96 2.51,-49.94 3.14,-49.90 3.77,-49.86 4.39,-49.81 5.02,-49.75 5.64,-49.68 6.27,-49.61 6.89,-49.52 7.51,-49.43 8.13,-49.33 8.75,-49.23 9.37,-49.11 9.99,-48.99 10.60,-48.86 11.21,-48.73 11.82,-48.58 12.43,-48.43 13.04,-48.27 13.65,-48.10 14.25,-47.93 14.85,-47.74 15.45,-47.55 16.05,-47.35 16.64,-47.15 17.23,-46.94 17.82,-46.72 18.41,-46.49 18.99,-46.25 19.57,-46.01 20.15,-45.76 20.72,-45.51 21.29,-45.24 21.86,-44.97 22.42,-44.69 22.98,-44.41 23.54,-44.11 24.09,-43.82 24.64,-43.51 25.18,-43.20 25.72,-42.88 26.26,-42.55 26.79,-42.22 27.32,-41.88 27.84,-41.53 28.36,-41.18 28.88,-40.82 29.39,-40.45 29.90,-40.08 30.40,-39.70 30.89,-39.31 31.38,-38.92 31.87,-38.53 32.35,-38.12 32.83,-37.71 33.30,-37.30 33.77,-36.88 34.23,-36.45 34.68,-36.02 35.13,-35.58 35.58,-35.13 36.02,-34.68 36.45,-34.23 36.88,-33.77 37.30,-33.30 37.71,-32.83 38.12,-32.35 38.53,-31.87 38.92,-31.38 39.31,-30.89 39.70,-30.40 40.08,-29.90 40.45,-29.39 40.82,-28.88 41.18,-28.36 41.53,-27.84 41.88,-27.32 42.22,-26.79 42.55,-26.26 42.88,-25.72 43.20,-25.18 43.51,-24.64 43.82,-24.09 44.11,-23.54 44.41,-22.98 44.69,-22.42 44.97,-21.86 45.24,-21.29 45.51,-20.72 45.76,-20.15 46.01,-19.57 46.25,-18.99 46.49,-18.41 46.72,-17.82 46.94,-17.23 47.15,-16.64 47.35,-16.05 47.55,-15.45 47.74,-14.85 47.93,-14.25 48.10,-13.65 48.27,-13.04 48.43,-12.43 48.58,-11.82 48.73,-11.21 48.86,-10.60 48.99,-9.99 49.11,-9.37 49.23,-8.75 49.33,-8.13 49.43,-7.51 49.52,-6.89 49.61,-6.27 49.68,-5.64 49.75,-5.02 49.81,-4.39 49.86,-3.77 49.90,-3.14 49.94,-2.51 49.96,-1.88 49.98,-1.26 50.00,-0.63 50.00,-0.00" numLanes="2" speed="20"/>
    </edges>
